306 Power Project -kimi k3-v4/results/load_flow/bus_results.csv
Case,Bus,Merged_into,Label,Type,Vnom_V,Vbase_V,V_pu,V_kV,Angle_deg,P_inj_MW,Q_inj_MVAr,P_load_alloc_MW,Q_load_alloc_MVAr,Alt_base_V,V_pu_alt_base,Note
LF1,BGRID230,,EXT GRID 230 kV,swing,230000,230000,1,230,0,-374.483506232911,29.9861998550796,NaN,NaN,NaN,NaN,""
LF1,B22,,22 kV GEN BUS,PV,22000,22000,1,22,-22.2246617332628,389.299999895339,31.6758542188715,NaN,NaN,NaN,NaN,""
LF1,B6_6,,6.6 kV MV BUS,PQ,6600,6600,1.0009111676433,6.6060137064458,4.33421076882853,-13.9999999009099,-8.67641988466798,9.01779359430605,5.58872652495894,6900,0.957393290789246,"CONFLICT C13: 1.00091 pu against the 6600 V system nominal, 0.95739 pu against the 6900 V UAT secondary winding. Both reported; the sources do not settle which is the intended base. P_inj here is the injection at the MERGED 6.6 kV node, i.e. the whole auxiliary load, not this bus's 9.0178 MW allocated share."
LF1,B6_6_WI1,B6_6,6.6 kV WI-1,PQ,6600,6600,1.0009111676433,6.6060137064458,4.33421076882853,NaN,NaN,2.49110320284698,1.54384710634225,NaN,NaN,"SAME ELECTRICAL NODE as B6_6 - reported for completeness, not solved separately. The solver sees only the group, so P_inj/Q_inj are NaN rather than repeated: repeating them would make the group total look like a per-bus figure. Its own allocated share is 2.4911 MW / 1.5438 MVAr, in the P_load_alloc columns - an ENGINEERING_ASSUMPTION (the split between the groups), not a solved quantity."
LF1,B6_6_WI2,B6_6,6.6 kV WI-2,PQ,6600,6600,1.0009111676433,6.6060137064458,4.33421076882853,NaN,NaN,2.49110320284698,1.54384710634225,NaN,NaN,"SAME ELECTRICAL NODE as B6_6 - reported for completeness, not solved separately. The solver sees only the group, so P_inj/Q_inj are NaN rather than repeated: repeating them would make the group total look like a per-bus figure. Its own allocated share is 2.4911 MW / 1.5438 MVAr, in the P_load_alloc columns - an ENGINEERING_ASSUMPTION (the split between the groups), not a solved quantity."
LF1,B230_1,,230 kV BUS 1 + BUS 2 (coupler closed),PQ,230000,230000,0.998671545792085,229.69445553218,1.07869791468696,7.73118167538853e-08,5.11089063757871e-07,NaN,NaN,NaN,NaN,"Bus coupler CLOSED (assumption): the load flow merges 230 kV BUS 1 and BUS 2 into one node, so they cannot be reported separately and the coupler flow is not observable."
LF1,B230_2,B230_1,230 kV BUS 2,PQ,230000,230000,0.998671545792085,229.69445553218,1.07869791468696,NaN,NaN,NaN,NaN,NaN,NaN,"SAME ELECTRICAL NODE as B230_1 - reported for completeness, not solved separately. The solver sees only the group, so P_inj/Q_inj are NaN rather than repeated: repeating them would make the group total look like a per-bus figure."
LF1,GAT_HV,,GAT_HV,PQ,230000,230000,0.957242030286996,220.165666966009,4.33202900104873,-6.7400576574266e-10,3.55567653558693e-11,NaN,NaN,NaN,NaN,"GAT HV terminal with bay 10BAY20 OPEN. Not a plant busbar: it is the transformer terminal, back-energised through the GAT from the 6.6 kV side. Its voltage is the turns ratio, not a system voltage."
LF2,BGRID230,,EXT GRID 230 kV,swing,230000,230000,1,230,0,-374.466580641925,33.7043641594079,NaN,NaN,NaN,NaN,""
LF2,B22,,22 kV GEN BUS,PV,22000,22000,1,22,-22.3292315637641,389.299999932741,27.4609572825779,NaN,NaN,NaN,NaN,""
LF2,B6_6,,6.6 kV MV BUS,PQ,6600,6600,1.02027974253679,6.73384630074282,2.79645853532609,-13.9999999755608,-8.67642064163614,9.01779359430605,5.58872652495894,6900,0.975919753730843,"CONFLICT C13: 1.02028 pu against the 6600 V system nominal, 0.97592 pu against the 6900 V UAT secondary winding. Both reported; the sources do not settle which is the intended base. P_inj here is the injection at the MERGED 6.6 kV node, i.e. the whole auxiliary load, not this bus's 9.0178 MW allocated share."
LF2,B6_6_WI1,B6_6,6.6 kV WI-1,PQ,6600,6600,1.02027974253679,6.73384630074282,2.79645853532609,NaN,NaN,2.49110320284698,1.54384710634225,NaN,NaN,"SAME ELECTRICAL NODE as B6_6 - reported for completeness, not solved separately. The solver sees only the group, so P_inj/Q_inj are NaN rather than repeated: repeating them would make the group total look like a per-bus figure. Its own allocated share is 2.4911 MW / 1.5438 MVAr, in the P_load_alloc columns - an ENGINEERING_ASSUMPTION (the split between the groups), not a solved quantity."
LF2,B6_6_WI2,B6_6,6.6 kV WI-2,PQ,6600,6600,1.02027974253679,6.73384630074282,2.79645853532609,NaN,NaN,2.49110320284698,1.54384710634225,NaN,NaN,"SAME ELECTRICAL NODE as B6_6 - reported for completeness, not solved separately. The solver sees only the group, so P_inj/Q_inj are NaN rather than repeated: repeating them would make the group total look like a per-bus figure. Its own allocated share is 2.4911 MW / 1.5438 MVAr, in the P_load_alloc columns - an ENGINEERING_ASSUMPTION (the split between the groups), not a solved quantity."
LF2,B230_1,,230 kV BUS 1 + BUS 2 (coupler closed),PQ,230000,230000,0.998484894783389,229.651525800179,1.07885081510448,1.12007921575109e-07,7.65959521290729e-07,NaN,NaN,NaN,NaN,"Bus coupler CLOSED (assumption): the load flow merges 230 kV BUS 1 and BUS 2 into one node, so they cannot be reported separately and the coupler flow is not observable."
LF2,B230_2,B230_1,230 kV BUS 2,PQ,230000,230000,0.998484894783389,229.651525800179,1.07885081510448,NaN,NaN,NaN,NaN,NaN,NaN,"SAME ELECTRICAL NODE as B230_1 - reported for completeness, not solved separately. The solver sees only the group, so P_inj/Q_inj are NaN rather than repeated: repeating them would make the group total look like a per-bus figure."
LF2,GAT_HV,,GAT_HV,PQ,230000,230000,0.998487116648707,229.652036829203,1.07896097417743,-9.99331556823935e-09,-9.52646213399571e-09,NaN,NaN,NaN,NaN,""
LF3,BGRID230,,EXT GRID 230 kV,swing,230000,230000,1,230,0,-327.329807893456,23.4174861323368,NaN,NaN,NaN,NaN,""
LF3,B22,,22 kV GEN BUS,PV,22000,22000,1,22,-23.2091373113758,342.009999950319,26.1744257564179,NaN,NaN,NaN,NaN,""
LF3,B6_6,,6.6 kV MV BUS,PQ,6600,6600,1.00090761010067,6.60599022666443,3.34974321606174,-13.9999999568765,-8.67642037574743,9.01779359430605,5.58872652495894,6900,0.95738988792238,"CONFLICT C13: 1.00091 pu against the 6600 V system nominal, 0.95739 pu against the 6900 V UAT secondary winding. Both reported; the sources do not settle which is the intended base. P_inj here is the injection at the MERGED 6.6 kV node, i.e. the whole auxiliary load, not this bus's 9.0178 MW allocated share."
LF3,B6_6_WI1,B6_6,6.6 kV WI-1,PQ,6600,6600,1.00090761010067,6.60599022666443,3.34974321606174,NaN,NaN,2.49110320284698,1.54384710634225,NaN,NaN,"SAME ELECTRICAL NODE as B6_6 - reported for completeness, not solved separately. The solver sees only the group, so P_inj/Q_inj are NaN rather than repeated: repeating them would make the group total look like a per-bus figure. Its own allocated share is 2.4911 MW / 1.5438 MVAr, in the P_load_alloc columns - an ENGINEERING_ASSUMPTION (the split between the groups), not a solved quantity."
LF3,B6_6_WI2,B6_6,6.6 kV WI-2,PQ,6600,6600,1.00090761010067,6.60599022666443,3.34974321606174,NaN,NaN,2.49110320284698,1.54384710634225,NaN,NaN,"SAME ELECTRICAL NODE as B6_6 - reported for completeness, not solved separately. The solver sees only the group, so P_inj/Q_inj are NaN rather than repeated: repeating them would make the group total look like a per-bus figure. Its own allocated share is 2.4911 MW / 1.5438 MVAr, in the P_load_alloc columns - an ENGINEERING_ASSUMPTION (the split between the groups), not a solved quantity."
LF3,B230_1,,230 kV BUS 1 + BUS 2 (coupler closed),PQ,230000,230000,0.998959517722561,229.760689076189,0.942586946850347,4.85404019185457e-08,3.4255843523184e-07,NaN,NaN,NaN,NaN,"Bus coupler CLOSED (assumption): the load flow merges 230 kV BUS 1 and BUS 2 into one node, so they cannot be reported separately and the coupler flow is not observable."
LF3,B230_2,B230_1,230 kV BUS 2,PQ,230000,230000,0.998959517722561,229.760689076189,0.942586946850347,NaN,NaN,NaN,NaN,NaN,NaN,"SAME ELECTRICAL NODE as B230_1 - reported for completeness, not solved separately. The solver sees only the group, so P_inj/Q_inj are NaN rather than repeated: repeating them would make the group total look like a per-bus figure."
LF3,GAT_HV,,GAT_HV,PQ,230000,230000,0.957234895522896,220.164025970266,3.34758635874178,-2.89185495424563e-10,1.52335941447895e-11,NaN,NaN,NaN,NaN,"GAT HV terminal with bay 10BAY20 OPEN. Not a plant busbar: it is the transformer terminal, back-energised through the GAT from the 6.6 kV side. Its voltage is the turns ratio, not a system voltage."
LF4,BGRID230,,EXT GRID 230 kV,swing,230000,230000,1,230,0,-327.319742714959,27.2310746474176,NaN,NaN,NaN,NaN,""
LF4,B22,,22 kV GEN BUS,PV,22000,22000,1,22,-23.2859185977784,342.009999963418,22.0070003567159,NaN,NaN,NaN,NaN,""
LF4,B6_6,,6.6 kV MV BUS,PQ,6600,6600,1.02081810110044,6.7373994672629,2.22378161994209,-13.9999999877835,-8.6764206923206,9.01779359430605,5.58872652495894,6900,0.97643470540042,"CONFLICT C13: 1.02082 pu against the 6600 V system nominal, 0.97643 pu against the 6900 V UAT secondary winding. Both reported; the sources do not settle which is the intended base. P_inj here is the injection at the MERGED 6.6 kV node, i.e. the whole auxiliary load, not this bus's 9.0178 MW allocated share."
LF4,B6_6_WI1,B6_6,6.6 kV WI-1,PQ,6600,6600,1.02081810110044,6.7373994672629,2.22378161994209,NaN,NaN,2.49110320284698,1.54384710634225,NaN,NaN,"SAME ELECTRICAL NODE as B6_6 - reported for completeness, not solved separately. The solver sees only the group, so P_inj/Q_inj are NaN rather than repeated: repeating them would make the group total look like a per-bus figure. Its own allocated share is 2.4911 MW / 1.5438 MVAr, in the P_load_alloc columns - an ENGINEERING_ASSUMPTION (the split between the groups), not a solved quantity."
LF4,B6_6_WI2,B6_6,6.6 kV WI-2,PQ,6600,6600,1.02081810110044,6.7373994672629,2.22378161994209,NaN,NaN,2.49110320284698,1.54384710634225,NaN,NaN,"SAME ELECTRICAL NODE as B6_6 - reported for completeness, not solved separately. The solver sees only the group, so P_inj/Q_inj are NaN rather than repeated: repeating them would make the group total look like a per-bus figure. Its own allocated share is 2.4911 MW / 1.5438 MVAr, in the P_load_alloc columns - an ENGINEERING_ASSUMPTION (the split between the groups), not a solved quantity."
LF4,B230_1,,230 kV BUS 1 + BUS 2 (coupler closed),PQ,230000,230000,0.998768076512271,229.716657597822,0.942738643584812,7.23511078004917e-08,5.27903201823651e-07,NaN,NaN,NaN,NaN,"Bus coupler CLOSED (assumption): the load flow merges 230 kV BUS 1 and BUS 2 into one node, so they cannot be reported separately and the coupler flow is not observable."
LF4,B230_2,B230_1,230 kV BUS 2,PQ,230000,230000,0.998768076512271,229.716657597822,0.942738643584812,NaN,NaN,NaN,NaN,NaN,NaN,"SAME ELECTRICAL NODE as B230_1 - reported for completeness, not solved separately. The solver sees only the group, so P_inj/Q_inj are NaN rather than repeated: repeating them would make the group total look like a per-bus figure."
LF4,GAT_HV,,GAT_HV,PQ,230000,230000,0.998769715749746,229.717034622442,0.94284544873741,-5.69071671766191e-09,-7.51495282735151e-09,NaN,NaN,NaN,NaN,""
